REMARK  3 active torsions:
REMARK  status: ('A' for Active; 'I' for Inactive)
REMARK    1  A    between atoms: O_1  and  C_13 
REMARK    2  A    between atoms: C_7  and  O_1 
REMARK    3  A    between atoms: C_16  and  C_17 
ROOT
ATOM      1  N   UNL d   1      -1.738  -3.031   0.415  0.00  0.00    -0.124 NA
ATOM      2  N   UNL d   1      -2.703  -4.019   0.430  0.00  0.00    -0.147 NA
ATOM      3  C   UNL d   1      -2.074  -1.771   0.082  0.00  0.00     0.186 A 
ATOM      4  C   UNL d   1      -3.373  -1.435  -0.238  0.00  0.00     0.062 A 
ATOM      5  C   UNL d   1      -4.349  -2.433  -0.209  0.00  0.00     0.038 A 
ATOM      6  C   UNL d   1      -3.990  -3.742   0.107  0.00  0.00     0.089 A 
ENDROOT
BRANCH   6   7
ATOM      7  C   UNL d   1      -4.926  -4.888   0.078  0.00  0.00    -0.005 A 
ATOM      8  C   UNL d   1      -6.011  -4.929  -0.827  0.00  0.00     0.027 A 
ATOM      9  C   UNL d   1      -6.873  -6.046  -0.882  0.00  0.00    -0.007 A 
ATOM     10  C   UNL d   1      -6.638  -7.116  -0.021  0.00  0.00     0.042 A 
ATOM     11  C   UNL d   1      -8.006  -6.386  -1.674  0.00  0.00     0.030 A 
ATOM     12  N   UNL d   1      -7.598  -8.067  -0.284  0.00  0.00    -0.365 N 
ATOM     13  C   UNL d   1      -5.584  -7.122   0.898  0.00  0.00     0.031 A 
ATOM     14  C   UNL d   1      -8.428  -7.638  -1.285  0.00  0.00     0.089 A 
ATOM     15  H   UNL d   1      -7.666  -8.959   0.188  0.00  0.00     0.165 HD
ATOM     16  C   UNL d   1      -4.742  -5.997   0.924  0.00  0.00     0.016 A 
ENDBRANCH   6   7
BRANCH   3  17
ATOM     17  O   UNL d   1      -1.103  -0.790  -0.012  0.00  0.00    -0.326 OA
BRANCH  17  18
ATOM     18  C   UNL d   1      -0.016  -1.004   0.900  0.00  0.00     0.163 C 
ATOM     19  C   UNL d   1       0.694   0.347   1.179  0.00  0.00     0.020 C 
ATOM     20  C   UNL d   1       1.540   0.784  -0.033  0.00  0.00     0.037 C 
ATOM     21  C   UNL d   1       1.680   0.089   2.330  0.00  0.00     0.037 C 
ATOM     22  C   UNL d   1       2.577  -0.300  -0.367  0.00  0.00     0.273 C 
ATOM     23  N   UNL d   1       2.436  -1.472   0.520  0.00  0.00     0.090 N 
ATOM     24  C   UNL d   1       1.051  -1.994   0.365  0.00  0.00     0.305 C 
ATOM     25  C   UNL d   1       2.640  -1.044   1.923  0.00  0.00     0.273 C 
ENDBRANCH  17  18
ENDBRANCH   3  17
TORSDOF 3
